240
TETCEN01
C      -0.565245    3.768146   -1.652077
C       0.363112    4.349454   -2.511400
C       0.134297    4.470059   -3.911732
C       1.069735    5.026633   -4.740796
C       2.296080    5.519906   -4.197366
C       2.550082    5.440682   -2.876914
C       1.616602    4.851585   -1.970390
C       1.837346    4.738255   -0.605157
C      -0.337312    3.660812   -0.280793
H      -1.387058    3.437050   -1.994596
H      -0.685301    4.157188   -4.278457
H       0.905183    5.084454   -5.675158
H       2.941552    5.908832   -4.774685
H       3.368774    5.785062   -2.541658
H       2.653555    5.070139   -0.251745
C       0.912416    4.155660    0.280793
C       1.140348    4.048326    1.652077
C       0.211991    3.467018    2.511400
C       0.440806    3.346413    3.911732
C      -0.494632    2.789839    4.740796
C      -1.720977    2.296566    4.197366
C      -1.974979    2.375789    2.876914
C      -1.041499    2.964887    1.970390
C      -1.262243    3.078217    0.605157
H      -2.078452    2.746333    0.251745
H      -2.793671    2.031410    2.541658
H      -2.366449    1.907640    4.774685
H      -0.330080    2.732017    5.675158
H       1.260404    3.659284    4.278457
H       1.962161    4.379422    1.994596
C       3.429698    6.380646   10.451054
C       4.358055    6.961955    9.591731
C       4.129240    7.082560    8.191399
C       5.064678    7.639133    7.362335
C       6.291023    8.132407    7.905765
C       6.545025    8.053183    9.226217
C       5.611545    7.464086   10.132741
C       5.832289    7.350756   11.497974
C       3.657630    6.273313   11.822338
H       2.607885    6.049551   10.108535
H       3.309642    6.769688    7.824674
H       4.900126    7.696955    6.427973
H       6.936495    8.521333    7.328446
H       7.363717    8.397563    9.561473
H       6.648498    7.682640   11.851386
C       4.907358    6.768160   12.383924
C       5.135291    6.660827   13.755208
C       4.206934    6.079518   14.614531
C       4.435749    5.958913   16.014863
C       3.500311    5.402340   16.843927
C       2.273966    4.909066   16.300497
C       2.019964    4.988290   14.980045
C       2.953444    5.577387   14.073521
C       2.732700    5.690717   12.708288
H       1.916491    5.358834   12.354876
H       1.201272    4.643911   14.644789
H       1.628494    4.520140   16.877816
H       3.664863    5.344518   17.778289
H       5.255347    6.271785   16.381588
H       5.957104    6.991922   14.097727
C       5.491255    3.768146   -1.652077
C       6.419612    4.349454   -2.511400
C       6.190797    4.470059   -3.911732
C       7.126235    5.026633   -4.740796
C       8.352580    5.519906   -4.197366
C       8.606582    5.440682   -2.876914
C       7.673102    4.851585   -1.970390
C       7.893846    4.738255   -0.605157
C       5.719188    3.660812   -0.280793
H       4.669442    3.437050   -1.994596
H       5.371199    4.157188   -4.278457
H       6.961683    5.084454   -5.675158
H       8.998052    5.908832   -4.774685
H       9.425274    5.785062   -2.541658
H       8.710055    5.070139   -0.251745
C       6.968916    4.155660    0.280793
C       7.196848    4.048326    1.652077
C       6.268491    3.467018    2.511400
C       6.497306    3.346413    3.911732
C       5.561868    2.789839    4.740796
C       4.335523    2.296566    4.197366
C       4.081521    2.375789    2.876914
C       5.015001    2.964887    1.970390
C       4.794257    3.078217    0.605157
H       3.978048    2.746333    0.251745
H       3.262829    2.031410    2.541658
H       3.690051    1.907640    4.774685
H       5.726420    2.732017    5.675158
H       7.316904    3.659284    4.278457
H       8.018661    4.379422    1.994596
C       9.486198    6.380646   10.451054
C      10.414555    6.961955    9.591731
C      10.185740    7.082560    8.191399
C      11.121178    7.639133    7.362335
C      12.347523    8.132407    7.905765
C      12.601525    8.053183    9.226217
C      11.668045    7.464086   10.132741
C      11.888789    7.350756   11.497974
C       9.714130    6.273313   11.822338
H       8.664385    6.049551   10.108535
H       9.366142    6.769688    7.824674
H      10.956626    7.696955    6.427973
H      12.992995    8.521333    7.328446
H      13.420217    8.397563    9.561473
H      12.704998    7.682640   11.851386
C      10.963858    6.768160   12.383924
C      11.191791    6.660827   13.755208
C      10.263434    6.079518   14.614531
C      10.492249    5.958913   16.014863
C       9.556811    5.402340   16.843927
C       8.330466    4.909066   16.300497
C       8.076464    4.988290   14.980045
C       9.009944    5.577387   14.073521
C       8.789200    5.690717   12.708288
H       7.972991    5.358834   12.354876
H       7.257772    4.643911   14.644789
H       7.684994    4.520140   16.877816
H       9.721363    5.344518   17.778289
H      11.311847    6.271785   16.381588
H      12.013604    6.991922   14.097727
C       2.103711    1.007328   -1.272039
C       2.988416    1.019997   -2.339535
C       2.694663    1.672737   -3.577686
C       3.574741    1.654685   -4.606452
C       4.827200    0.970560   -4.473317
C       5.147750    0.344341   -3.329571
C       4.259090    0.332483   -2.211242
C       4.558618   -0.315858   -1.025135
C       2.389154    0.343105   -0.065357
H       1.268435    1.454129   -1.342237
H       1.866595    2.126554   -3.680562
H       3.361405    2.096626   -5.419782
H       5.437004    0.961019   -5.201926
H       5.984764   -0.101419   -3.261794
H       5.395638   -0.757702   -0.942834
C       3.667346   -0.343105    0.065357
C       3.952789   -1.007328    1.272039
C       3.068084   -1.019997    2.339535
C       3.361837   -1.672737    3.577686
C       2.481759   -1.654685    4.606452
C       1.229300   -0.970560    4.473317
C       0.908750   -0.344341    3.329571
C       1.797410   -0.332483    2.211242
C       1.497882    0.315858    1.025135
H       0.660862    0.757702    0.942834
H       0.071736    0.101419    3.261794
H       0.619496   -0.961019    5.201926
H       2.695095   -2.096626    5.419782
H       4.189905   -2.126554    3.680562
H       4.788065   -1.454129    1.342237
C       6.098653    3.619828   10.831092
C       6.983359    3.632498    9.763596
C       6.689606    4.285238    8.525445
C       7.569684    4.267185    7.496679
C       8.822142    3.583060    7.629814
C       9.142693    2.956842    8.773560
C       8.254033    2.944983    9.891889
C       8.553560    2.296643   11.077996
C       6.384096    2.955606   12.037774
H       5.263378    4.066629   10.760894
H       5.861538    4.739055    8.422569
H       7.356348    4.709126    6.683349
H       9.431947    3.573519    6.901205
H       9.979707    2.511082    8.841337
H       9.390580    1.854799   11.160297
C       7.662289    2.269395   12.168488
C       7.947732    1.605173   13.375170
C       7.063027    1.592503   14.442666
C       7.356779    0.939764   15.680817
C       6.476702    0.957816   16.709583
C       5.224243    1.641941   16.576448
C       4.903692    2.268159   15.432702
C       5.792353    2.280018   14.314373
C       5.492825    2.928359   13.128266
H       4.655805    3.370202   13.045965
H       4.066679    2.713920   15.364925
H       4.614438    1.651482   17.305057
H       6.690038    0.515875   17.522913
H       8.184848    0.485947   15.783693
H       8.783007    1.158372   13.445368
C       2.678814    8.823799   -1.272039
C       3.563519    8.836469   -2.339535
C       3.269767    9.489209   -3.577686
C       4.149844    9.471156   -4.606452
C       5.402303    8.787032   -4.473317
C       5.722854    8.160813   -3.329571
C       4.834193    8.148954   -2.211242
C       5.133721    7.500614   -1.025135
C       2.964257    8.159577   -0.065357
H       1.843539    9.270600   -1.342237
H       2.441698    9.943026   -3.680562
H       3.936508    9.913097   -5.419782
H       6.012107    8.777490   -5.201926
H       6.559867    7.715053   -3.261794
H       5.970741    7.058770   -0.942834
C       4.242450    7.473366    0.065357
C       4.527893    6.809144    1.272039
C       3.643187    6.796474    2.339535
C       3.936940    6.143735    3.577686
C       3.056862    6.161787    4.606452
C       1.804403    6.845912    4.473317
C       1.483853    7.472131    3.329571
C       2.372513    7.483989    2.211242
C       2.072985    8.132330    1.025135
H       1.235965    8.574173    0.942834
H       0.646839    7.917891    3.261794
H       1.194599    6.855453    5.201926
H       3.270198    5.719846    5.419782
H       4.765008    5.689918    3.680562
H       5.363168    6.362343    1.342237
C       6.673757   11.436300   10.831092
C       7.558462   11.448970    9.763596
C       7.264709   12.101710    8.525445
C       8.144787   12.083657    7.496679
C       9.397246   11.399532    7.629814
C       9.717796   10.773314    8.773560
C       8.829136   10.761455    9.891889
C       9.128664   10.113114   11.077996
C       6.959200   10.772078   12.037774
H       5.838481   11.883101   10.760894
H       6.436641   12.555526    8.422569
H       7.931451   12.525598    6.683349
H      10.007050   11.389991    6.901205
H      10.554810   10.327553    8.841337
H       9.965684    9.671271   11.160297
C       8.237392   10.085867   12.168488
C       8.522835    9.421645   13.375170
C       7.638130    9.408975   14.442666
C       7.931883    8.756235   15.680817
C       7.051805    8.774288   16.709583
C       5.799346    9.458413   16.576448
C       5.478795   10.084631   15.432702
C       6.367456   10.096490   14.314373
C       6.067928   10.744831   13.128266
H       5.230908   11.186674   13.045965
H       4.641782   10.530391   15.364925
H       5.189542    9.467954   17.305057
H       7.265141    8.332347   17.522913
H       8.759951    8.302418   15.783693
H       9.358111    8.974844   13.445368
